LTspice 24.1.6 for Windows
Circuit: C:\Users\KenBoak\OneDrive - Sentinel Photonics\Documents\LTspice\4_bit_ripple_counter.net
Start Time: Thu Apr  3 14:35:48 2025
solver = Normal
Maximum thread count: 18
tnom = 27
temp = 27
method = trap
.OP point found by inspection.
Total elapsed time: 2.890 seconds.

Files loaded:
C:\Users\KenBoak\OneDrive - Sentinel Photonics\Documents\LTspice\4_bit_ripple_counter.net
C:\Users\KenBoak\AppData\Local\LTspice\lib\cmp\standard.dio
C:\Users\KenBoak\AppData\Local\LTspice\lib\cmp\standard.bjt

